Version 4
SHEET 1 3004 2180
WIRE 1232 1184 1120 1184
WIRE 1328 1184 1232 1184
WIRE 1440 1184 1328 1184
WIRE 1600 1184 1440 1184
WIRE 1696 1184 1600 1184
WIRE 1808 1184 1696 1184
WIRE 1600 1200 1600 1184
WIRE 1120 1216 1120 1184
WIRE 1232 1216 1232 1184
WIRE 1328 1216 1328 1184
WIRE 1440 1264 1440 1184
WIRE 1600 1296 1600 1280
WIRE 1696 1296 1696 1184
WIRE 1808 1296 1808 1184
WIRE 1120 1312 1120 1296
WIRE 1232 1312 1232 1280
WIRE 1328 1312 1328 1280
WIRE 1440 1376 1440 1344
WIRE 1536 1376 1440 1376
WIRE 1888 1376 1856 1376
WIRE 2000 1376 1968 1376
WIRE 2112 1376 2000 1376
WIRE 2208 1376 2112 1376
WIRE 2288 1376 2208 1376
WIRE 2368 1376 2288 1376
WIRE 2480 1376 2368 1376
WIRE 1440 1392 1440 1376
WIRE 2000 1392 2000 1376
WIRE 2112 1392 2112 1376
WIRE 2480 1408 2480 1376
WIRE 2208 1424 2208 1376
WIRE 2288 1424 2288 1376
WIRE 2368 1424 2368 1376
WIRE 1232 1488 1184 1488
WIRE 1344 1488 1312 1488
WIRE 1536 1488 1344 1488
WIRE 2000 1488 2000 1472
WIRE 2000 1488 1856 1488
WIRE 2112 1488 2112 1456
WIRE 2112 1488 2000 1488
WIRE 2000 1504 2000 1488
WIRE 1184 1520 1184 1488
WIRE 1344 1520 1344 1488
WIRE 2208 1536 2208 1488
WIRE 2288 1536 2288 1488
WIRE 2368 1536 2368 1488
WIRE 2480 1536 2480 1488
WIRE 1184 1600 1184 1584
WIRE 1344 1600 1344 1584
WIRE 1440 1600 1424 1600
WIRE 1536 1600 1520 1600
WIRE 1904 1600 1856 1600
WIRE 1920 1600 1904 1600
WIRE 2000 1600 2000 1584
WIRE 1632 1696 1632 1680
WIRE 1760 1696 1760 1680
FLAG 1760 1696 0
FLAG 1632 1696 0
FLAG 1120 1312 0
FLAG 1424 1600 0
FLAG 2480 1536 0
FLAG 2000 1600 0
FLAG 2208 1536 0
FLAG 1184 1600 0
FLAG 2480 1376 OUT
FLAG 1232 1312 0
FLAG 1440 1456 0
FLAG 1344 1600 0
FLAG 1120 1184 IN
FLAG 1328 1312 0
FLAG 2288 1536 0
FLAG 2368 1536 0
FLAG 1904 1600 IN
SYMBOL ind 1872 1392 R270
WINDOW 0 32 56 VTop 2
WINDOW 3 5 56 VBottom 2
SYMATTR InstName L1
SYMATTR Value 1u
SYMATTR SpiceLine Ipk=4.8 Rser=0.007 Rpar=0 Cpar=0 mfg="Coiltronics" pn="CTX1-3"
SYMBOL RES 1984 1376 R0
SYMATTR InstName R1
SYMATTR Value 232K
SYMBOL VOLTAGE 1120 1200 R0
WINDOW 3 27 94 Left 2
SYMATTR Value 3.3
SYMATTR InstName V1
SYMBOL res 1984 1488 R0
SYMATTR InstName R2
SYMATTR Value 187K
SYMBOL res 1536 1584 R90
WINDOW 0 0 56 VBottom 2
WINDOW 3 32 56 VTop 2
SYMATTR InstName R3
SYMATTR Value 309K
SYMBOL res 1328 1472 R90
WINDOW 0 0 56 VBottom 2
WINDOW 3 32 56 VTop 2
SYMATTR InstName R4
SYMATTR Value 7.5K
SYMBOL cap 2192 1424 R0
SYMATTR InstName C1
SYMATTR Value 47u
SYMATTR SpiceLine V=6.3 Irms=0 Rser=0.002 MTBF=0 Lser=0 mfg="TDK" pn="C4532X5ROJ47@M" type="X5R" ppPkg=1
SYMBOL cap 1168 1520 R0
SYMATTR InstName C2
SYMATTR Value 1000p
SYMBOL res 1424 1248 R0
SYMATTR InstName R5
SYMATTR Value 1Meg
SYMBOL res 1584 1184 R0
SYMATTR InstName R6
SYMATTR Value 100K
SYMBOL PowerProducts\\LTC3412A 1696 1488 R0
SYMATTR InstName U1
SYMBOL cap 1216 1216 R0
SYMATTR InstName C3
SYMATTR Value 22u
SYMBOL cap 1424 1392 R0
WINDOW 3 30 48 Left 2
SYMATTR Value 2.2n
SYMATTR InstName C4
SYMBOL cap 1328 1520 R0
SYMATTR InstName C5
SYMATTR Value 100p
SYMBOL load2 2480 1408 R0
WINDOW 3 25 79 Left 2
WINDOW 123 0 0 Left 2
WINDOW 39 25 112 Left 2
SYMATTR Value PULSE(1.5 3 1.4m 10u 10u 200u)
SYMATTR SpiceLine load
SYMATTR InstName I1
SYMBOL cap 1312 1216 R0
SYMATTR InstName C6
SYMATTR Value 22u
SYMBOL cap 2272 1424 R0
SYMATTR InstName C7
SYMATTR Value 47u
SYMATTR SpiceLine V=6.3 Irms=0 Rser=0.002 MTBF=0 Lser=0 mfg="TDK" pn="C4532X5ROJ47@M" type="X5R" ppPkg=1
SYMBOL cap 2352 1424 R0
SYMATTR InstName C8
SYMATTR Value 10u
SYMATTR SpiceLine V=6.3 Irms=0 Rser=0.001 MTBF=0 Lser=0 mfg="TDK" pn="C3216X5ROJ106M" type="X5R" ppPkg=1
SYMBOL cap 2096 1392 R0
SYMATTR InstName C9
SYMATTR Value 22p
TEXT 1904 1672 Left 0 !.tran 1.8m startup
TEXT 1792 1120 Center 0 ;LTC3412A - 3A, 4MHz, Monolithic Synchronous Step-down Regulator\nInput: 3.3V     Output: 1.8V @ 3A
